Adsorption isotherm of Argon on MWCNT
DOI: 10.1021/Jp400480q
Adsorbate Argon: InChIKey XKRFYHLGVUSROY-UHFFFAOYSA-N
Temperature: 87 K
Tabular data in the source: 0
pressure (bar)	uptake (kmol/m3)
0.00374842	12.7703
0.0173326	15.3716
0.0332298	17.6577
0.042291	19.3131
0.0628041	21.1261
0.0810402	22.7027
0.0901066	24.2793
0.103815	24.9887
0.131262	25.9347
0.151837	26.8018
0.186192	27.2748
0.232015	27.6689
0.270965	27.9842
0.316798	28.2207
0.383263	28.4572
0.477242	28.6149
0.743142	28.9302
0.912776	29.009
0.988426	29.009
